/*--------------------------------*- C++ -*----------------------------------*\
  =========                 |
  \\      /  F ield         | OpenFOAM: The Open Source CFD Toolbox
   \\    /   O peration     | Website:  https://openfoam.org
    \\  /    A nd           | Version:  8
     \\/     M anipulation  |
\*---------------------------------------------------------------------------*/
FoamFile
{
    version     2.0;
    format      ascii;
    class       volScalarField;
    location    "0";
    object      epsilon;
}
// * * * * * * * * * * * * * * * * * * * * * * * * * * * * * * * * * * * * * //

dimensions      [0 2 -3 0 0 0 0];

internalField   uniform 14.855;

boundaryField
{
    frontAndBack
    {
        type            empty;
    }
    LeftandRight
    {
        type            epsilonWallFunction;
        value           uniform 14.855;
    }
    hot
    {
        type            epsilonWallFunction;
        value           uniform 14.855;
    }
    cold
    {
        type            epsilonWallFunction;
        value           uniform 14.855;
    }
   
    inlet
    {
        type            fixedvalue;
        value           uniform 14.855;
    }
    outlet
    {
        type            zeroGradient;
    }

}


// ************************************************************************* //
