/*--------------------------------*- C++ -*----------------------------------*\
  =========                 |
  \\      /  F ield         | OpenFOAM: The Open Source CFD Toolbox
   \\    /   O peration     | Website:  https://openfoam.org
    \\  /    A nd           | Version:  8
     \\/     M anipulation  |
\*---------------------------------------------------------------------------*/
FoamFile
{
    version     2.0;
    format      ascii;
    class       volVectorField;
    object      U;
}
// * * * * * * * * * * * * * * * * * * * * * * * * * * * * * * * * * * * * * //

dimensions      [0 1 -1 0 0 0 0];

internalField   uniform (0 0 0);

boundaryField
{
//    LeftandRight
//     {
//         type            noSlip;
//     }

//     frontAndBack
//     {
//         type            noSlip;
//     }

   frontAndBack
    {
        type            empty;
    }

    leftAndRight
    {
        type            noSlip;
    }

   cabinet
    {
        type            noSlip;
    }

    cold
    {
        type            noSlip;
    }

    inlet
    {
        type            fixedValue;
        value           uniform (8 0 0);
    }

    outlet
    {
	    type		    zeroGradient;
    }
    Baffle
    {
        type            noSlip;
    }

 

}
// ************************************************************************* //
